egret/models/tests/pglib_opf_case3_lmbd_acopf_0920.json
{"elements": {"bus": {"1": {"matpower_bustype": "ref", "area": 1.0, "vm": 1.0648971908516385, "va": 0.0, "base_kv": 240.0, "zone": 1.0, "v_min": 0.9, "v_max": 1.1, "lmp": 32.95315369761497, "qlmp": 4.8163038255286524e-11, "pl": 101.20000000000002, "ql": 36.800000000000004}, "2": {"matpower_bustype": "PV", "area": 1.0, "vm": 0.9261705380793713, "va": 0.16600936481760306, "base_kv": 240.0, "zone": 1.0, "v_min": 0.9, "v_max": 1.1, "lmp": 29.284031702568328, "qlmp": -8.208325047558955e-12, "pl": 101.20000000000002, "ql": 36.800000000000004}, "3": {"matpower_bustype": "PV", "area": 1.0, "vm": 0.9, "va": -0.2620488175001835, "base_kv": 240.0, "zone": 1.0, "v_min": 0.9, "v_max": 1.1, "lmp": 37.251285638646664, "qlmp": -7.56922033242067e-12, "pl": 87.4, "ql": 46.0}}, "load": {"load_1": {"in_service": true, "p_load": 101.20000000000002, "q_load": 36.800000000000004, "bus": "1"}, "load_2": {"in_service": true, "p_load": 101.20000000000002, "q_load": 36.800000000000004, "bus": "2"}, "load_3": {"in_service": true, "p_load": 87.4, "q_load": 46.0, "bus": "3"}}, "generator": {"1": {"bus": "1", "pg": 127.0597895535383, "qg": 42.0816377997185, "vg": 1.0, "mbase": 100.0, "in_service": true, "p_min": 0.0, "p_max": 2000.0, "q_min": -1000.0, "q_max": 1000.0, "generator_type": "thermal", "p_cost": {"data_type": "cost_curve", "cost_curve_type": "polynomial", "values": {"0": 0.0, "1": 5.0, "2": 0.11}}, "startup_cost": 0.0, "shutdown_cost": 0.0}, "2": {"bus": "2", "pg": 165.20018650387328, "qg": -7.965809233060052, "vg": 1.0, "mbase": 100.0, "in_service": true, "p_min": 0.0, "p_max": 2000.0, "q_min": -1000.0, "q_max": 1000.0, "generator_type": "thermal", "p_cost": {"data_type": "cost_curve", "cost_curve_type": "polynomial", "values": {"0": 0.0, "1": 1.2, "2": 0.08500000000000002}}, "startup_cost": 0.0, "shutdown_cost": 0.0}, "3": {"bus": "3", "pg": 0.0, "qg": -6.463044106304107, "vg": 1.0, "mbase": 100.0, "in_service": true, "p_min": 0.0, "p_max": 0.0, "q_min": -1000.0, "q_max": 1000.0, "generator_type": "thermal", "p_cost": {"data_type": "cost_curve", "cost_curve_type": "polynomial", "values": {"0": 0.0, "1": 0.0, "2": 0.0}}, "startup_cost": 0.0, "shutdown_cost": 0.0}}, "branch": {"1": {"from_bus": "1", "to_bus": "3", "resistance": 0.065, "reactance": 0.62, "charging_susceptance": 0.45, "branch_type": "line", "rating_long_term": 9000.0, "rating_short_term": 9000.0, "rating_emergency": 9000.0, "in_service": true, "angle_diff_min": -30.0, "angle_diff_max": 30.0, "pf": 43.09484353462062, "qf": 3.566437985331122, "pt": -41.545568479605855, "qt": -32.528872843883526, "pfl": 1.549275055014765, "qfl": -28.962434858552406, "pf_dual": 3295.3153697616112, "qf_dual": 4.8271086601046596e-09}, "2": {"from_bus": "3", "to_bus": "2", "resistance": 0.025, "reactance": 0.75, "charging_susceptance": 0.7, "branch_type": "line", "rating_long_term": 50.0, "rating_short_term": 50.0, "rating_emergency": 50.0, "in_service": true, "angle_diff_min": -30.0, "angle_diff_max": 30.0, "pf": -45.85443152039416, "qf": -19.934171262420577, "pt": 46.5252509906806, "qt": -18.31395957355621, "pfl": 0.6708194702864434, "qfl": -38.24813083597679, "pf_dual": 3455.3775862098687, "qf_dual": -117.26809752363287}, "3": {"from_bus": "1", "to_bus": "2", "resistance": 0.042, "reactance": 0.9, "charging_susceptance": 0.3, "branch_type": "line", "rating_long_term": 9000.0, "rating_short_term": 9000.0, "rating_emergency": 9000.0, "in_service": true, "angle_diff_min": -30.0, "angle_diff_max": 30.0, "pf": -17.235053981082356, "qf": 1.7151998143873766, "pt": 17.474935513192662, "qt": -26.45184965950384, "pfl": 0.23988153211030594, "qfl": -24.736649845116464, "pf_dual": 3295.3153697614493, "qf_dual": 4.821081699310057e-09}}}, "system": {"model_name": "pglib_opf_case3_lmbd", "mpc_version": "'2'", "baseMVA": 100.0, "reference_bus": "1", "reference_bus_angle": 0.0, "total_cost": 4929.143722702913, "ploss": 2.4599760574115144, "qloss": -91.94721553964565, "mult": 0.92}, "results": {"time": 0.022575855255126953, "#_cons": 36, "#_vars": 23, "termination": "optimal"}}